8
C1
C   0.000000    0.000000    0.424165
H   0.000000    0.000000    1.508704
N   0.000000    1.158087   -0.174215
N   0.000000   -1.158087   -0.174215
H   0.000000    1.258360   -1.178487
H   0.000000    2.005112    0.371143
H   0.000000   -2.005112    0.371143
H   0.000000   -1.258360   -1.178487
